<routes xmlns:xsi="http://www.w3.org/2001/XMLSchema-instance" xsi:noNamespaceSchemaLocation="http://sumo.dlr.de/xsd/routes_file.xsd">
    
    
    <vType id="car" accel="2.6" decel="4.5" sigma="0.5" length="5.0" maxSpeed="50.0" />
    <vType id="truck" accel="1.8" decel="4.0" sigma="0.3" length="12.0" maxSpeed="40.0" />
    
    
    
    <route id="WE" edges="W0 E1" />
      
    <route id="WN" edges="W0 N1" />
    
    <route id="WS" edges="W0 S1" />
    
    
    <route id="NS" edges="N0 S1" />
    
    <route id="NW" edges="N0 W1" />
    
    <route id="NE" edges="N0 E1" />
    
    
    <route id="EW" edges="E0 W1" />
    
    <route id="EN" edges="E0 N1" />
    
    <route id="ES" edges="E0 S1" />
    
    
    <route id="SN" edges="S0 N1" />
    
    <route id="SE" edges="S0 E1" />
    
    <route id="SW" edges="S0 W1" />
    
    
    
    <flow id="flow_WE_morning" route="WE" begin="0" end="3600" vehsPerHour="543" type="car" />
    <flow id="flow_EW_morning" route="EW" begin="0" end="3600" vehsPerHour="407" type="car" />
    <flow id="flow_NS_morning" route="NS" begin="0" end="3600" vehsPerHour="271" type="car" />
    <flow id="flow_SN_morning" route="SN" begin="0" end="3600" vehsPerHour="203" type="car" />
    
    
    <flow id="flow_WN" route="WN" begin="0" end="3600" vehsPerHour="135" type="car" />
    <flow id="flow_WS" route="WS" begin="0" end="3600" vehsPerHour="101" type="car" />
    <flow id="flow_NW" route="NW" begin="0" end="3600" vehsPerHour="101" type="car" />
    <flow id="flow_NE" route="NE" begin="0" end="3600" vehsPerHour="81" type="car" />
    <flow id="flow_EN" route="EN" begin="0" end="3600" vehsPerHour="122" type="car" />
    <flow id="flow_ES" route="ES" begin="0" end="3600" vehsPerHour="108" type="car" />
    <flow id="flow_SE" route="SE" begin="0" end="3600" vehsPerHour="81" type="car" />
    <flow id="flow_SW" route="SW" begin="0" end="3600" vehsPerHour="67" type="car" />
    
    
    <flow id="flow_truck_WE" route="WE" begin="0" end="3600" vehsPerHour="67" type="truck" />
    <flow id="flow_truck_EW" route="EW" begin="0" end="3600" vehsPerHour="54" type="truck" />
    <flow id="flow_truck_NS" route="NS" begin="0" end="3600" vehsPerHour="40" type="truck" />
    <flow id="flow_truck_SN" route="SN" begin="0" end="3600" vehsPerHour="33" type="truck" />
    
</routes>