<?xml version="1.0" encoding="UTF-8"?>
<routes xmlns:xsi="http://www.w3.org/2001/XMLSchema-instance" xsi:noNamespaceSchemaLocation="http://sumo.dlr.de/xsd/routes_file.xsd">
    
    <!-- Vehicle types -->
    <vType id="car" accel="2.6" decel="4.5" sigma="0.5" length="5.0" maxSpeed="50.0"/>
    <vType id="truck" accel="1.8" decel="4.0" sigma="0.3" length="12.0" maxSpeed="40.0"/>
    
    <!-- Routes through the intersection -->
    <!-- West to East -->
    <route id="WE" edges="W0 E1"/>
    <!-- West to North -->  
    <route id="WN" edges="W0 N1"/>
    <!-- West to South -->
    <route id="WS" edges="W0 S1"/>
    
    <!-- North to South -->
    <route id="NS" edges="N0 S1"/>
    <!-- North to West -->
    <route id="NW" edges="N0 W1"/>
    <!-- North to East -->
    <route id="NE" edges="N0 E1"/>
    
    <!-- East to West -->
    <route id="EW" edges="E0 W1"/>
    <!-- East to North -->
    <route id="EN" edges="E0 N1"/>
    <!-- East to South -->
    <route id="ES" edges="E0 S1"/>
    
    <!-- South to North -->
    <route id="SN" edges="S0 N1"/>
    <!-- South to East -->
    <route id="SE" edges="S0 E1"/>
    <!-- South to West -->
    <route id="SW" edges="S0 W1"/>
    
    <!-- Traffic flows with varying intensities -->
    <!-- Morning rush hour pattern - higher EW traffic -->
    <flow id="flow_WE_morning" route="WE" begin="0" end="3600" vehsPerHour="800" type="car"/>
    <flow id="flow_EW_morning" route="EW" begin="0" end="3600" vehsPerHour="600" type="car"/>
    <flow id="flow_NS_morning" route="NS" begin="0" end="3600" vehsPerHour="400" type="car"/>
    <flow id="flow_SN_morning" route="SN" begin="0" end="3600" vehsPerHour="300" type="car"/>
    
    <!-- Add some turning movements -->
    <flow id="flow_WN" route="WN" begin="0" end="3600" vehsPerHour="200" type="car"/>
    <flow id="flow_WS" route="WS" begin="0" end="3600" vehsPerHour="150" type="car"/>
    <flow id="flow_NW" route="NW" begin="0" end="3600" vehsPerHour="150" type="car"/>
    <flow id="flow_NE" route="NE" begin="0" end="3600" vehsPerHour="120" type="car"/>
    <flow id="flow_EN" route="EN" begin="0" end="3600" vehsPerHour="180" type="car"/>
    <flow id="flow_ES" route="ES" begin="0" end="3600" vehsPerHour="160" type="car"/>
    <flow id="flow_SE" route="SE" begin="0" end="3600" vehsPerHour="120" type="car"/>
    <flow id="flow_SW" route="SW" begin="0" end="3600" vehsPerHour="100" type="car"/>
    
    <!-- Add some trucks for variety -->
    <flow id="flow_truck_WE" route="WE" begin="0" end="3600" vehsPerHour="100" type="truck"/>
    <flow id="flow_truck_EW" route="EW" begin="0" end="3600" vehsPerHour="80" type="truck"/>
    <flow id="flow_truck_NS" route="NS" begin="0" end="3600" vehsPerHour="60" type="truck"/>
    <flow id="flow_truck_SN" route="SN" begin="0" end="3600" vehsPerHour="50" type="truck"/>
    
</routes>